Version 4
SHEET 1 1168 680
WIRE 416 -144 144 -144
WIRE 576 -144 416 -144
WIRE 800 -144 576 -144
WIRE 416 -112 416 -144
WIRE 576 -80 576 -144
WIRE 800 -80 800 -144
WIRE 736 -32 688 -32
WIRE 416 0 416 -32
WIRE 416 0 384 0
WIRE 528 0 416 0
WIRE 144 16 144 -144
WIRE 576 48 576 16
WIRE 688 48 688 -32
WIRE 688 48 576 48
WIRE 800 80 800 16
WIRE 416 96 416 0
WIRE 576 96 576 48
WIRE 576 96 496 96
WIRE 576 112 576 96
WIRE 384 128 384 0
WIRE 144 224 144 96
WIRE 368 224 144 224
WIRE 384 224 384 192
WIRE 384 224 368 224
WIRE 576 224 576 176
WIRE 576 224 384 224
WIRE 800 224 800 160
WIRE 800 224 576 224
WIRE 368 288 368 224
FLAG 368 288 0
SYMBOL voltage 144 0 R0
WINDOW 123 0 0 Left 2
WINDOW 39 0 0 Left 2
SYMATTR InstName V1
SYMATTR Value 100
SYMBOL nmos 528 -80 R0
SYMATTR InstName M1
SYMATTR Value IRF530
SYMBOL res 512 80 R90
WINDOW 0 0 56 VBottom 2
WINDOW 3 32 56 VTop 2
SYMATTR InstName R2
SYMATTR Value 10k
SYMBOL cap 560 112 R0
SYMATTR InstName C2
SYMATTR Value 10µ
SYMBOL res 432 -16 R180
WINDOW 0 36 76 Left 2
WINDOW 3 36 40 Left 2
SYMATTR InstName R3
SYMATTR Value 100k
SYMBOL zener 400 192 R180
WINDOW 0 24 64 Left 2
WINDOW 3 24 0 Left 2
SYMATTR InstName D1
SYMATTR Value EDZV12B
SYMBOL res 784 64 R0
SYMATTR InstName R1
SYMATTR Value 100k
SYMBOL npn 736 -80 R0
SYMATTR InstName Q1
SYMATTR Value 2N5550
TEXT 112 312 Left 2 !.tran 1000
