Version 4
SHEET 1 880 680
WIRE 576 -144 144 -144
WIRE 576 -80 576 -144
WIRE 528 0 416 0
WIRE 144 16 144 -144
WIRE 416 96 416 0
WIRE 464 96 416 96
WIRE 576 96 576 16
WIRE 576 96 544 96
WIRE 576 112 576 96
WIRE 416 128 416 96
WIRE 144 224 144 96
WIRE 368 224 144 224
WIRE 416 224 416 192
WIRE 416 224 368 224
WIRE 576 224 576 176
WIRE 576 224 416 224
WIRE 368 288 368 224
FLAG 368 288 0
SYMBOL voltage 144 0 R0
WINDOW 123 0 0 Left 2
WINDOW 39 0 0 Left 2
SYMATTR InstName V1
SYMATTR Value 100
SYMBOL cap 560 112 R0
SYMATTR InstName C2
SYMATTR Value 10µ
SYMBOL pmos 528 -80 R0
SYMATTR InstName M1
SYMATTR Value RSQ015P10
SYMBOL zener 432 192 R180
WINDOW 0 24 64 Left 2
WINDOW 3 24 0 Left 2
SYMATTR InstName D1
SYMATTR Value PTZ12B
SYMBOL res 560 80 R90
WINDOW 0 0 56 VBottom 2
WINDOW 3 32 56 VTop 2
SYMATTR InstName R1
SYMATTR Value 1k
TEXT 112 312 Left 2 !.tran 1000
