Version 4
SHEET 1 1168 680
WIRE 416 -144 144 -144
WIRE 576 -144 416 -144
WIRE 416 -112 416 -144
WIRE 576 -80 576 -144
WIRE 512 -32 464 -32
WIRE 416 0 416 -32
WIRE 416 0 384 0
WIRE 464 0 464 -32
WIRE 464 0 416 0
WIRE 144 16 144 -144
WIRE 576 48 576 16
WIRE 800 48 576 48
WIRE 800 80 800 48
WIRE 576 112 576 48
WIRE 384 128 384 0
WIRE 144 224 144 96
WIRE 368 224 144 224
WIRE 384 224 384 192
WIRE 384 224 368 224
WIRE 576 224 576 176
WIRE 576 224 384 224
WIRE 800 224 800 160
WIRE 800 224 576 224
WIRE 368 288 368 224
FLAG 368 288 0
SYMBOL voltage 144 0 R0
WINDOW 123 0 0 Left 2
WINDOW 39 0 0 Left 2
SYMATTR InstName V1
SYMATTR Value 100
SYMBOL cap 560 112 R0
SYMATTR InstName C2
SYMATTR Value 10µ
SYMBOL res 432 -16 R180
WINDOW 0 36 76 Left 2
WINDOW 3 36 40 Left 2
SYMATTR InstName R3
SYMATTR Value 100R
SYMBOL zener 400 192 R180
WINDOW 0 24 64 Left 2
WINDOW 3 24 0 Left 2
SYMATTR InstName D1
SYMATTR Value EDZV12B
SYMBOL res 784 64 R0
SYMATTR InstName R1
SYMATTR Value 1R
SYMBOL npn 512 -80 R0
SYMATTR InstName Q1
TEXT 112 312 Left 2 !.tran 1000
